* PSpice Model Editor - Version 17.4.0

*$
*BeginSpec
*IF: (10.000E-12,10.000E-12) (2.6511,156.45E-6) (2.8348,1.2203E-3) (3.0005,3.8486E-3) (3.2273,9.9499E-3) (3.3748,14.987E-3) (3.4973,19.556E-3) (3.6289,25.000E-3)
*JC:
*RL:
*RB: Vz=0 Iz=0 Zz=0
*RR: Trr=0 Ifwd=10.000E-3 Irev=10.000E-3 Rl=100
*EndSpec

*BeginTrace
*IF: 1,0,10.000E-12,3.6289,1,3,0,0,-1 (27)
*JC: 0,1,.1,10,1,3,0,0,-1 (27)
*RL: 0,0,1,100,1,3,0,0,-1 (27)
*RB: 0,1,100.00E-6,1,1,3,0,0,-1 (27)
*RR: 0,0,-5.0000E-9,20.000E-9,1,3,0,0,-1 (27)
*EndTrace

*BeginParam
*IS=834.95E-15 (10.000E-21,.1,0)
*N=5 (.2,5,0)
*RS=21.114 (1.0000E-6,100,0)
*IKF=0 (0,1.0000E3,0)
*XTI=3 (-100,100,0)
*EG=1.1100 (.1,5.5100,0)
*CJO=1.0000E-12 (10.000E-21,1.0000E-3,0)
*M=.3333 (.1,10,0)
*VJ=.75 (.3905,10,0)
*FC=.5 (1.0000E-3,10,0)
*ISR=100.00E-12 (10.000E-21,.1,0)
*NR=2 (.5,5,0)
*BV=100 (.1,1.0000E6,0)
*IBV=100.00E-6 (1.0000E-9,10,0)
*TT=5.0000E-9 (100.00E-18,1.0000E-3,0)
*EndParam

*DEVICE=led_alb,D

* led_alb D model
* created using Model Editor release 17.4.0 on 05/07/22 at 00:04
* The Model Editor is a PSpice product.
.MODEL led_alb D
+ IS=834.95E-15
+ N=5
+ RS=21.114
*$
