* PSpice Model Editor - Version 17.4.0
*$
*BeginSpec
*IF: (10.000E-12,10.000E-12) (1.7000,100.00E-12) (1.8014,954.65E-6) (1.8995,4.1766E-3) (2,10.000E-3) (2.0598,14.678E-3) (2.1029,19.570E-3) (1.9545,6.5632E-3) (1.8493,2.2673E-3)
*IF: (2.0335,11.933E-3) (2.0837,17.184E-3)
*JC:
*RL:
*RB: Vz=0 Iz=0 Zz=0
*RR: Trr=0 Ifwd=10.000E-3 Irev=10.000E-3 Rl=100
*EndSpec

*BeginTrace
*IF: 1,0,10.000E-12,2.1029,1,3,0,0,-1 (27)
*JC: 0,1,.1,10,1,3,0,0,-1 (27)
*RL: 0,0,1,100,1,3,0,0,-1 (27)
*RB: 0,1,100.00E-6,1,1,3,0,0,-1 (27)
*RR: 0,0,-5.0000E-9,20.000E-9,1,3,0,0,-1 (27)
*EndTrace

*BeginParam
*IS=47.682E-18 (10.000E-21,.1,0)
*N=2.3060 (.2,5,0)
*RS=4.1984 (1.0000E-6,100,0)
*IKF=.14481 (0,1.0000E3,0)
*XTI=3 (-100,100,0)
*EG=1.1100 (.1,5.5100,0)
*CJO=1.0000E-12 (10.000E-21,1.0000E-3,0)
*M=.3333 (.1,10,0)
*VJ=.75 (.3905,10,0)
*FC=.5 (1.0000E-3,10,0)
*ISR=100.00E-12 (10.000E-21,.1,0)
*NR=2 (.5,5,0)
*BV=100 (.1,1.0000E6,0)
*IBV=100.00E-6 (1.0000E-9,10,0)
*TT=5.0000E-9 (100.00E-18,1.0000E-3,0)
*EndParam

*DEVICE=led_galben,D

* led_galben D model
* updated using Model Editor release 17.4.0 on 05/06/22 at 23:00
* The Model Editor is a PSpice product.
.MODEL led_galben D
+ IS=47.682E-18
+ N=2.3060
+ RS=4.1984

*$
